@<TRIPOS>MOLECULE
ML2.pdb
 52 54 0 0 0
SMALL
GASTEIGER

@<TRIPOS>ATOM
      1 C           1.4910    7.3860   -8.9930 C.ar    1  ML2       -0.0530
      2 C           0.9110    8.7200   -9.0790 C.ar    1  ML2        0.0005
      3 C           0.6540    9.2880  -10.2460 C.ar    1  ML2       -0.0476
      4 C           1.7770    6.6960  -10.2530 C.ar    1  ML2       -0.0581
      5 C           1.5190    7.2660  -11.4220 C.ar    1  ML2       -0.0450
      6 C           1.8270    6.5270  -12.6680 C.3     1  ML2       -0.0394
      7 C           0.9390    8.6020  -11.5010 C.ar    1  ML2       -0.0173
      8 C           0.6980    9.1280  -12.6550 C.3     1  ML2        0.0881
      9 C           0.6220    9.4170   -7.7930 C.3     1  ML2        0.0032
     10 C           1.8940    9.7740   -7.0640 C.3     1  ML2       -0.0052
     11 C           2.7680   10.6530   -7.9430 C.3     1  ML2       -0.0428
     12 C           2.0190   11.9080   -8.3340 C.3     1  ML2       -0.0124
     13 C           0.6500   11.8850   -7.6680 C.3     1  ML2       -0.0331
     14 N          -0.1170   10.7040   -8.1660 N.4     1  ML2        0.2325
     15 O           1.0070    8.3910  -13.7630 O.3     1  ML2       -0.3035
     16 S           1.8480    9.0310  -15.0940 S.3     1  ML2        0.0084
     17 O           0.9860    9.9690  -15.8730 O.3     1  ML2       -0.3236
     18 C           2.2550    7.8900  -15.9790 C.3     1  ML2        0.0138
     19 C           3.2790    9.8790  -14.5990 C.3     1  ML2        0.1892
     20 C           3.5450   11.1830  -15.0090 C.2     1  ML2       -0.0313
     21 C           4.7060   11.7630  -14.5620 C.2     1  ML2       -0.0585
     22 C           5.6040   11.1160  -13.7370 C.2     1  ML2       -0.0275
     23 C           5.3420    9.8240  -13.3300 C.2     1  ML2        0.0867
     24 O           4.1770    9.2280  -13.7740 O.2     1  ML2       -0.4791
     25 H           1.6920    6.9454   -8.0817 H       1  ML2        0.0622
     26 H           0.2439   10.2348  -10.2686 H       1  ML2        0.0626
     27 H           2.1867    5.7491  -10.2305 H       1  ML2        0.0620
     28 H           1.5595    7.1260  -13.5133 H       1  ML2        0.0278
     29 H           1.2703    5.6134  -12.6877 H       1  ML2        0.0278
     30 H           2.8737    6.3077  -12.7031 H       1  ML2        0.0278
     31 H          -0.3492    9.3439  -12.6960 H       1  ML2        0.0623
     32 H           1.3443    9.9792  -12.7059 H       1  ML2        0.0623
     33 H           0.0484    8.7851   -7.1476 H       1  ML2        0.0903
     34 H           1.6512   10.3016   -6.1654 H       1  ML2        0.0323
     35 H           2.4258    8.8766   -6.8257 H       1  ML2        0.0323
     36 H           3.6529   10.9224   -7.4051 H       1  ML2        0.0269
     37 H           3.0297   10.1119   -8.8282 H       1  ML2        0.0269
     38 H           1.9020   11.9414   -9.3971 H       1  ML2        0.0317
     39 H           2.5646   12.7724   -8.0177 H       1  ML2        0.0317
     40 H           0.1201   12.7831   -7.9076 H       1  ML2        0.0814
     41 H           0.7670   11.8169   -6.6066 H       1  ML2        0.0814
     42 H          -1.0444   10.6980   -7.7414 H       1  ML2        0.2020
     43 H          -0.2060   10.7614   -9.1805 H       1  ML2        0.2020
     44 H           1.4877   10.3199  -16.6254 H       1  ML2        0.2279
     45 H           2.7876    8.2683  -16.8264 H       1  ML2        0.0368
     46 H           1.3824    7.3670  -16.3106 H       1  ML2        0.0368
     47 H           2.8852    7.2210  -15.4312 H       1  ML2        0.0368
     48 H           2.7579   10.6298  -15.1555 H       1  ML2        0.0925
     49 H           2.8939   11.6939  -15.6255 H       1  ML2        0.0618
     50 H           4.9177   12.7291  -14.8568 H       1  ML2        0.0617
     51 H           6.4642   11.5947  -13.4272 H       1  ML2        0.0648
     52 H           5.9962    9.3180  -12.7127 H       1  ML2        0.1024
@<TRIPOS>ML2
14 1
charge 1
@<TRIPOS>BOND
     1    18    16    1
     2    17    16    1
     3    16    19    1
     4    16    15    1
     5    20    19    1
     6    20    21    2
     7    19    24    1
     8    21    22    1
     9    24    23    1
    10    15     8    1
    11    22    23    2
    12     6     5    1
    13     8     7    1
    14     7     5   ar
    15     7     3   ar
    16     5     4   ar
    17     4     1   ar
    18     3     2   ar
    19     2     1   ar
    20     2     9    1
    21    12    11    1
    22    12    13    1
    23    14     9    1
    24    14    13    1
    25    11    10    1
    26     9    10    1
    27     1    25    1
    28     3    26    1
    29     4    27    1
    30     6    28    1
    31     6    29    1
    32     6    30    1
    33     8    31    1
    34     8    32    1
    35     9    33    1
    36    10    34    1
    37    10    35    1
    38    11    36    1
    39    11    37    1
    40    12    38    1
    41    12    39    1
    42    13    40    1
    43    13    41    1
    44    14    42    1
    45    14    43    1
    46    17    44    1
    47    18    45    1
    48    18    46    1
    49    18    47    1
    50    19    48    1
    51    20    49    1
    52    21    50    1
    53    22    51    1
    54    23    52    1
