@<TRIPOS>MOLECULE
TS4.pdb
 22 22 0 0 0
SMALL
GASTEIGER

@<TRIPOS>ATOM
      1  C         -3.9710    6.9710    3.9980 C.ar  350  TS4350     -0.0060
      2  C         -3.0320    7.8920    4.3960 C.ar  350  TS4350     -0.0551
      3  C         -3.3330    9.2420    4.2600 C.ar  350  TS4350     -0.0613
      4  C         -4.5300    9.6930    3.7430 C.ar  350  TS4350     -0.0583
      5  C         -5.4650    8.7310    3.3460 C.ar  350  TS4350     -0.0199
      6  C         -5.1740    7.3750    3.4800 C.ar  350  TS4350      0.1200
      7  O         -6.1540    6.4630    3.0690 O.3   350  TS4350     -0.5065
      8  C         -3.6730    5.5320    4.1100 C.3   350  TS4350     -0.0245
      9  C         -2.7300    5.1270    1.8210 C.3   350  TS4350     -0.0650
     10  C         -2.5140    5.0800    3.3070 C.3   350  TS4350     -0.0518
     11 H          -2.1260    7.5888    4.7861 H     350  TS4350      0.0621
     12 H          -2.6309    9.9370    4.5586 H     350  TS4350      0.0618
     13 H          -4.7281   10.7018    3.6526 H     350  TS4350      0.0619
     14 H          -6.3724    9.0264    2.9530 H     350  TS4350      0.0654
     15 H          -5.9973    5.5421    3.1425 H     350  TS4350      0.2921
     16 H          -4.5354    4.9862    3.7885 H     350  TS4350      0.0314
     17 H          -3.4217    5.3524    5.1344 H     350  TS4350      0.0314
     18 H          -1.8476    4.7854    1.3214 H     350  TS4350      0.0230
     19 H          -2.9420    6.1326    1.5230 H     350  TS4350      0.0230
     20 H          -3.5542    4.4965    1.5603 H     350  TS4350      0.0230
     21 H          -2.2913    4.0698    3.5807 H     350  TS4350      0.0266
     22 H          -1.7133    5.7571    3.5199 H     350  TS4350      0.0266
@<TRIPOS>BOND
     1     1     8    1
     2     1     2   ar
     3     1     6   ar
     4     2     3   ar
     5     2    11    1
     6     3     4   ar
     7     3    12    1
     8     4     5   ar
     9     4    13    1
    10     5     6   ar
    11     5    14    1
    12     6     7    1
    13     7    15    1
    14     8    10    1
    15     8    16    1
    16     8    17    1
    17     9    10    1
    18     9    18    1
    19     9    19    1
    20     9    20    1
    21    10    21    1
    22    10    22    1
