@<TRIPOS>MOLECULE
TS4.pdb
 22 22 0 0 0
SMALL
GASTEIGER

@<TRIPOS>ATOM
      1  C         -1.2240    7.8560   -3.5120 C.ar  350  TS4350     -0.0060
      2  C         -0.0500    8.1440   -2.8570 C.ar  350  TS4350     -0.0551
      3  C          0.5810    7.1230   -2.1570 C.ar  350  TS4350     -0.0613
      4  C          0.0810    5.8390   -2.0930 C.ar  350  TS4350     -0.0583
      5  C         -1.1150    5.5780   -2.7700 C.ar  350  TS4350     -0.0199
      6  C         -1.7560    6.5930   -3.4760 C.ar  350  TS4350      0.1200
      7  O         -2.9460    6.2670   -4.1360 O.3   350  TS4350     -0.5065
      8  C         -1.9280    8.9230   -4.2450 C.3   350  TS4350     -0.0245
      9  C         -3.4740    9.7150   -2.4340 C.3   350  TS4350     -0.0650
     10  C         -2.3760   10.0550   -3.4020 C.3   350  TS4350     -0.0518
     11 H           0.3522    9.0940   -2.8845 H     350  TS4350      0.0621
     12 H           1.4623    7.3345   -1.6634 H     350  TS4350      0.0618
     13 H           0.5706    5.0991   -1.5658 H     350  TS4350      0.0619
     14 H          -1.5235    4.6306   -2.7462 H     350  TS4350      0.0654
     15 H          -3.4070    6.9223   -4.6218 H     350  TS4350      0.2921
     16 H          -2.7890    8.4943   -4.7138 H     350  TS4350      0.0314
     17 H          -1.2262    9.3247   -4.9458 H     350  TS4350      0.0314
     18 H          -3.7340   10.5859   -1.8693 H     350  TS4350      0.0230
     19 H          -3.1384    8.9462   -1.7697 H     350  TS4350      0.0230
     20 H          -4.3314    9.3708   -2.9737 H     350  TS4350      0.0230
     21 H          -2.7280   10.8330   -4.0468 H     350  TS4350      0.0266
     22 H          -1.5320   10.3489   -2.8137 H     350  TS4350      0.0266
@<TRIPOS>BOND
     1     1     8    1
     2     1     2   ar
     3     1     6   ar
     4     2     3   ar
     5     2    11    1
     6     3     4   ar
     7     3    12    1
     8     4     5   ar
     9     4    13    1
    10     5     6   ar
    11     5    14    1
    12     6     7    1
    13     7    15    1
    14     8    10    1
    15     8    16    1
    16     8    17    1
    17     9    10    1
    18     9    18    1
    19     9    19    1
    20     9    20    1
    21    10    21    1
    22    10    22    1
