MODEL 1
REMARK VINA RESULT:      -0.0      0.000      0.000
REMARK  Name = TS4.pdb
REMARK  2 active torsions:
REMARK  status: ('A' for Active; 'I' for Inactive)
REMARK    1  A    between atoms: C_2  and  C_3
REMARK    2  A    between atoms: C_3  and  C_4
REMARK                            x       y       z     vdW  Elec       q    Type
REMARK                         _______ _______ _______ _____ _____    ______ ____
ROOT
ATOM      1  C   UNL     1      -3.297   5.289  -7.337  0.00  0.00    +0.000 A 
ATOM      2  C   UNL     1      -2.878   5.914  -8.489  0.00  0.00    +0.000 A 
ATOM      3  C   UNL     1      -1.997   5.238  -9.323  0.00  0.00    +0.000 A 
ATOM      4  C   UNL     1      -1.526   3.971  -9.044  0.00  0.00    +0.000 A 
ATOM      5  C   UNL     1      -1.970   3.362  -7.866  0.00  0.00    +0.000 A 
ATOM      6  C   UNL     1      -2.855   4.031  -7.022  0.00  0.00    +0.000 A 
ATOM      7  O   UNL     1      -3.265   3.366  -5.861  0.00  0.00    +0.000 OA
ENDROOT
BRANCH   1   8
ATOM      8  C   UNL     1      -4.215   5.990  -6.421  0.00  0.00    +0.000 C 
BRANCH   8  10
ATOM      9  C   UNL     1      -2.536   7.051  -4.888  0.00  0.00    +0.000 C 
ATOM     10  C   UNL     1      -3.674   7.244  -5.850  0.00  0.00    +0.000 C 
ENDBRANCH   8  10
ENDBRANCH   1   8
TORSDOF 2
ENDMDL
MODEL 2
REMARK VINA RESULT:      -0.0      5.421      6.989
REMARK  Name = TS4.pdb
REMARK  2 active torsions:
REMARK  status: ('A' for Active; 'I' for Inactive)
REMARK    1  A    between atoms: C_2  and  C_3
REMARK    2  A    between atoms: C_3  and  C_4
REMARK                            x       y       z     vdW  Elec       q    Type
REMARK                         _______ _______ _______ _____ _____    ______ ____
ROOT
ATOM      1  C   UNL     1      -9.453   5.372  -7.381  0.00  0.00    +0.000 A 
ATOM      2  C   UNL     1     -10.022   6.354  -6.606  0.00  0.00    +0.000 A 
ATOM      3  C   UNL     1      -9.335   7.551  -6.448  0.00  0.00    +0.000 A 
ATOM      4  C   UNL     1      -8.109   7.792  -7.034  0.00  0.00    +0.000 A 
ATOM      5  C   UNL     1      -7.556   6.774  -7.817  0.00  0.00    +0.000 A 
ATOM      6  C   UNL     1      -8.237   5.570  -7.983  0.00  0.00    +0.000 A 
ATOM      7  O   UNL     1      -7.633   4.592  -8.781  0.00  0.00    +0.000 OA
ENDROOT
BRANCH   1   8
ATOM      8  C   UNL     1     -10.149   4.083  -7.550  0.00  0.00    +0.000 C 
BRANCH   8  10
ATOM      9  C   UNL     1      -9.099   2.799  -5.667  0.00  0.00    +0.000 C 
ATOM     10  C   UNL     1     -10.358   3.329  -6.293  0.00  0.00    +0.000 C 
ENDBRANCH   8  10
ENDBRANCH   1   8
TORSDOF 2
ENDMDL
MODEL 3
REMARK VINA RESULT:      -0.0      9.030     10.842
REMARK  Name = TS4.pdb
REMARK  2 active torsions:
REMARK  status: ('A' for Active; 'I' for Inactive)
REMARK    1  A    between atoms: C_2  and  C_3
REMARK    2  A    between atoms: C_3  and  C_4
REMARK                            x       y       z     vdW  Elec       q    Type
REMARK                         _______ _______ _______ _____ _____    ______ ____
ROOT
ATOM      1  C   UNL     1     -10.829  11.237  -6.615  0.00  0.00    +0.000 A 
ATOM      2  C   UNL     1     -11.875  12.000  -7.077  0.00  0.00    +0.000 A 
ATOM      3  C   UNL     1     -12.712  12.602  -6.147  0.00  0.00    +0.000 A 
ATOM      4  C   UNL     1     -12.539  12.467  -4.785  0.00  0.00    +0.000 A 
ATOM      5  C   UNL     1     -11.466  11.685  -4.346  0.00  0.00    +0.000 A 
ATOM      6  C   UNL     1     -10.618  11.076  -5.270  0.00  0.00    +0.000 A 
ATOM      7  O   UNL     1      -9.560  10.311  -4.767  0.00  0.00    +0.000 OA
ENDROOT
BRANCH   1   8
ATOM      8  C   UNL     1      -9.935  10.567  -7.578  0.00  0.00    +0.000 C 
BRANCH   8  10
ATOM      9  C   UNL     1     -11.097   8.349  -7.742  0.00  0.00    +0.000 C 
ATOM     10  C   UNL     1     -10.606   9.579  -8.453  0.00  0.00    +0.000 C 
ENDBRANCH   8  10
ENDBRANCH   1   8
TORSDOF 2
ENDMDL
MODEL 4
REMARK VINA RESULT:      -0.0      5.398      6.776
REMARK  Name = TS4.pdb
REMARK  2 active torsions:
REMARK  status: ('A' for Active; 'I' for Inactive)
REMARK    1  A    between atoms: C_2  and  C_3
REMARK    2  A    between atoms: C_3  and  C_4
REMARK                            x       y       z     vdW  Elec       q    Type
REMARK                         _______ _______ _______ _____ _____    ______ ____
ROOT
ATOM      1  C   UNL     1      -4.414   5.920  -1.261  0.00  0.00    +0.000 A 
ATOM      2  C   UNL     1      -4.024   5.867   0.057  0.00  0.00    +0.000 A 
ATOM      3  C   UNL     1      -2.666   5.800   0.339  0.00  0.00    +0.000 A 
ATOM      4  C   UNL     1      -1.697   5.785  -0.643  0.00  0.00    +0.000 A 
ATOM      5  C   UNL     1      -2.125   5.839  -1.973  0.00  0.00    +0.000 A 
ATOM      6  C   UNL     1      -3.485   5.908  -2.268  0.00  0.00    +0.000 A 
ATOM      7  O   UNL     1      -3.849   5.965  -3.619  0.00  0.00    +0.000 OA
ENDROOT
BRANCH   1   8
ATOM      8  C   UNL     1      -5.850   5.970  -1.593  0.00  0.00    +0.000 C 
BRANCH   8  10
ATOM      9  C   UNL     1      -6.295   3.516  -1.864  0.00  0.00    +0.000 C 
ATOM     10  C   UNL     1      -6.625   4.792  -1.143  0.00  0.00    +0.000 C 
ENDBRANCH   8  10
ENDBRANCH   1   8
TORSDOF 2
ENDMDL
MODEL 5
REMARK VINA RESULT:      -0.0      5.326      7.144
REMARK  Name = TS4.pdb
REMARK  2 active torsions:
REMARK  status: ('A' for Active; 'I' for Inactive)
REMARK    1  A    between atoms: C_2  and  C_3
REMARK    2  A    between atoms: C_3  and  C_4
REMARK                            x       y       z     vdW  Elec       q    Type
REMARK                         _______ _______ _______ _____ _____    ______ ____
ROOT
ATOM      1  C   UNL     1      -6.892   7.903  -2.433  0.00  0.00    +0.000 A 
ATOM      2  C   UNL     1      -6.254   8.293  -1.279  0.00  0.00    +0.000 A 
ATOM      3  C   UNL     1      -4.947   7.870  -1.073  0.00  0.00    +0.000 A 
ATOM      4  C   UNL     1      -4.266   7.078  -1.975  0.00  0.00    +0.000 A 
ATOM      5  C   UNL     1      -4.942   6.697  -3.138  0.00  0.00    +0.000 A 
ATOM      6  C   UNL     1      -6.253   7.117  -3.356  0.00  0.00    +0.000 A 
ATOM      7  O   UNL     1      -6.872   6.706  -4.543  0.00  0.00    +0.000 OA
ENDROOT
BRANCH   1   8
ATOM      8  C   UNL     1      -8.286   8.318  -2.670  0.00  0.00    +0.000 C 
BRANCH   8  10
ATOM      9  C   UNL     1      -9.477   6.338  -1.689  0.00  0.00    +0.000 C 
ATOM     10  C   UNL     1      -9.253   7.824  -1.663  0.00  0.00    +0.000 C 
ENDBRANCH   8  10
ENDBRANCH   1   8
TORSDOF 2
ENDMDL
MODEL 6
REMARK VINA RESULT:      -0.0      9.572     10.736
REMARK  Name = TS4.pdb
REMARK  2 active torsions:
REMARK  status: ('A' for Active; 'I' for Inactive)
REMARK    1  A    between atoms: C_2  and  C_3
REMARK    2  A    between atoms: C_3  and  C_4
REMARK                            x       y       z     vdW  Elec       q    Type
REMARK                         _______ _______ _______ _____ _____    ______ ____
ROOT
ATOM      1  C   UNL     1      -3.401   1.996   3.083  0.00  0.00    +0.000 A 
ATOM      2  C   UNL     1      -4.299   1.424   2.213  0.00  0.00    +0.000 A 
ATOM      3  C   UNL     1      -4.051   0.133   1.765  0.00  0.00    +0.000 A 
ATOM      4  C   UNL     1      -2.946  -0.595   2.155  0.00  0.00    +0.000 A 
ATOM      5  C   UNL     1      -2.050   0.014   3.040  0.00  0.00    +0.000 A 
ATOM      6  C   UNL     1      -2.289   1.309   3.497  0.00  0.00    +0.000 A 
ATOM      7  O   UNL     1      -1.358   1.861   4.384  0.00  0.00    +0.000 OA
ENDROOT
BRANCH   1   8
ATOM      8  C   UNL     1      -3.625   3.373   3.559  0.00  0.00    +0.000 C 
BRANCH   8  10
ATOM      9  C   UNL     1      -2.306   4.626   1.832  0.00  0.00    +0.000 C 
ATOM     10  C   UNL     1      -3.636   4.398   2.491  0.00  0.00    +0.000 C 
ENDBRANCH   8  10
ENDBRANCH   1   8
TORSDOF 2
ENDMDL
MODEL 7
REMARK VINA RESULT:      -0.0      4.190      4.568
REMARK  Name = TS4.pdb
REMARK  2 active torsions:
REMARK  status: ('A' for Active; 'I' for Inactive)
REMARK    1  A    between atoms: C_2  and  C_3
REMARK    2  A    between atoms: C_3  and  C_4
REMARK                            x       y       z     vdW  Elec       q    Type
REMARK                         _______ _______ _______ _____ _____    ______ ____
ROOT
ATOM      1  C   UNL     1      -5.618   7.239  -4.318  0.00  0.00    +0.000 A 
ATOM      2  C   UNL     1      -5.866   7.428  -5.657  0.00  0.00    +0.000 A 
ATOM      3  C   UNL     1      -6.381   6.365  -6.388  0.00  0.00    +0.000 A 
ATOM      4  C   UNL     1      -6.651   5.133  -5.829  0.00  0.00    +0.000 A 
ATOM      5  C   UNL     1      -6.388   4.972  -4.465  0.00  0.00    +0.000 A 
ATOM      6  C   UNL     1      -5.873   6.032  -3.721  0.00  0.00    +0.000 A 
ATOM      7  O   UNL     1      -5.635   5.808  -2.360  0.00  0.00    +0.000 OA
ENDROOT
BRANCH   1   8
ATOM      8  C   UNL     1      -5.052   8.342  -3.520  0.00  0.00    +0.000 C 
BRANCH   8  10
ATOM      9  C   UNL     1      -2.612   7.805  -3.750  0.00  0.00    +0.000 C 
ATOM     10  C   UNL     1      -3.717   8.800  -3.966  0.00  0.00    +0.000 C 
ENDBRANCH   8  10
ENDBRANCH   1   8
TORSDOF 2
ENDMDL
MODEL 8
REMARK VINA RESULT:      -0.0      7.332      8.416
REMARK  Name = TS4.pdb
REMARK  2 active torsions:
REMARK  status: ('A' for Active; 'I' for Inactive)
REMARK    1  A    between atoms: C_2  and  C_3
REMARK    2  A    between atoms: C_3  and  C_4
REMARK                            x       y       z     vdW  Elec       q    Type
REMARK                         _______ _______ _______ _____ _____    ______ ____
ROOT
ATOM      1  C   UNL     1      -7.424   0.054  -2.473  0.00  0.00    +0.000 A 
ATOM      2  C   UNL     1      -7.865  -1.248  -2.425  0.00  0.00    +0.000 A 
ATOM      3  C   UNL     1      -7.103  -2.225  -3.053  0.00  0.00    +0.000 A 
ATOM      4  C   UNL     1      -5.929  -1.944  -3.720  0.00  0.00    +0.000 A 
ATOM      5  C   UNL     1      -5.507  -0.611  -3.752  0.00  0.00    +0.000 A 
ATOM      6  C   UNL     1      -6.263   0.378  -3.124  0.00  0.00    +0.000 A 
ATOM      7  O   UNL     1      -5.785   1.692  -3.188  0.00  0.00    +0.000 OA
ENDROOT
BRANCH   1   8
ATOM      8  C   UNL     1      -8.222   1.117  -1.834  0.00  0.00    +0.000 C 
BRANCH   8  10
ATOM      9  C   UNL     1      -9.616   1.822  -3.798  0.00  0.00    +0.000 C 
ATOM     10  C   UNL     1      -9.582   1.285  -2.395  0.00  0.00    +0.000 C 
ENDBRANCH   8  10
ENDBRANCH   1   8
TORSDOF 2
ENDMDL
MODEL 9
REMARK VINA RESULT:      -0.0      4.558      5.457
REMARK  Name = TS4.pdb
REMARK  2 active torsions:
REMARK  status: ('A' for Active; 'I' for Inactive)
REMARK    1  A    between atoms: C_2  and  C_3
REMARK    2  A    between atoms: C_3  and  C_4
REMARK                            x       y       z     vdW  Elec       q    Type
REMARK                         _______ _______ _______ _____ _____    ______ ____
ROOT
ATOM      1  C   UNL     1      -1.224   7.856  -3.512  0.00  0.00    +0.000 A 
ATOM      2  C   UNL     1      -0.050   8.144  -2.857  0.00  0.00    +0.000 A 
ATOM      3  C   UNL     1       0.581   7.123  -2.157  0.00  0.00    +0.000 A 
ATOM      4  C   UNL     1       0.081   5.839  -2.093  0.00  0.00    +0.000 A 
ATOM      5  C   UNL     1      -1.115   5.578  -2.770  0.00  0.00    +0.000 A 
ATOM      6  C   UNL     1      -1.756   6.593  -3.476  0.00  0.00    +0.000 A 
ATOM      7  O   UNL     1      -2.946   6.267  -4.136  0.00  0.00    +0.000 OA
ENDROOT
BRANCH   1   8
ATOM      8  C   UNL     1      -1.928   8.923  -4.245  0.00  0.00    +0.000 C 
BRANCH   8  10
ATOM      9  C   UNL     1      -3.474   9.715  -2.434  0.00  0.00    +0.000 C 
ATOM     10  C   UNL     1      -2.376  10.055  -3.402  0.00  0.00    +0.000 C 
ENDBRANCH   8  10
ENDBRANCH   1   8
TORSDOF 2
ENDMDL
