MODEL 1
REMARK VINA RESULT:      -0.0      0.000      0.000
REMARK  Name = TS4.pdb
REMARK  2 active torsions:
REMARK  status: ('A' for Active; 'I' for Inactive)
REMARK    1  A    between atoms: C_2  and  C_3
REMARK    2  A    between atoms: C_3  and  C_4
REMARK                            x       y       z     vdW  Elec       q    Type
REMARK                         _______ _______ _______ _____ _____    ______ ____
ROOT
ATOM      1  C   UNL     1      -3.297   5.289  -7.337  0.00  0.00    +0.000 A 
ATOM      2  C   UNL     1      -2.878   5.914  -8.489  0.00  0.00    +0.000 A 
ATOM      3  C   UNL     1      -1.997   5.238  -9.323  0.00  0.00    +0.000 A 
ATOM      4  C   UNL     1      -1.526   3.971  -9.044  0.00  0.00    +0.000 A 
ATOM      5  C   UNL     1      -1.970   3.362  -7.866  0.00  0.00    +0.000 A 
ATOM      6  C   UNL     1      -2.855   4.031  -7.022  0.00  0.00    +0.000 A 
ATOM      7  O   UNL     1      -3.265   3.366  -5.861  0.00  0.00    +0.000 OA
ENDROOT
BRANCH   1   8
ATOM      8  C   UNL     1      -4.215   5.990  -6.421  0.00  0.00    +0.000 C 
BRANCH   8  10
ATOM      9  C   UNL     1      -2.536   7.051  -4.888  0.00  0.00    +0.000 C 
ATOM     10  C   UNL     1      -3.674   7.244  -5.850  0.00  0.00    +0.000 C 
ENDBRANCH   8  10
ENDBRANCH   1   8
TORSDOF 2
ENDMDL
