MODEL 2
REMARK VINA RESULT:      -0.0      5.421      6.989
REMARK  Name = TS4.pdb
REMARK  2 active torsions:
REMARK  status: ('A' for Active; 'I' for Inactive)
REMARK    1  A    between atoms: C_2  and  C_3
REMARK    2  A    between atoms: C_3  and  C_4
REMARK                            x       y       z     vdW  Elec       q    Type
REMARK                         _______ _______ _______ _____ _____    ______ ____
ROOT
ATOM      1  C   UNL     1      -9.453   5.372  -7.381  0.00  0.00    +0.000 A 
ATOM      2  C   UNL     1     -10.022   6.354  -6.606  0.00  0.00    +0.000 A 
ATOM      3  C   UNL     1      -9.335   7.551  -6.448  0.00  0.00    +0.000 A 
ATOM      4  C   UNL     1      -8.109   7.792  -7.034  0.00  0.00    +0.000 A 
ATOM      5  C   UNL     1      -7.556   6.774  -7.817  0.00  0.00    +0.000 A 
ATOM      6  C   UNL     1      -8.237   5.570  -7.983  0.00  0.00    +0.000 A 
ATOM      7  O   UNL     1      -7.633   4.592  -8.781  0.00  0.00    +0.000 OA
ENDROOT
BRANCH   1   8
ATOM      8  C   UNL     1     -10.149   4.083  -7.550  0.00  0.00    +0.000 C 
BRANCH   8  10
ATOM      9  C   UNL     1      -9.099   2.799  -5.667  0.00  0.00    +0.000 C 
ATOM     10  C   UNL     1     -10.358   3.329  -6.293  0.00  0.00    +0.000 C 
ENDBRANCH   8  10
ENDBRANCH   1   8
TORSDOF 2
ENDMDL
