MODEL 3
REMARK VINA RESULT:      -0.0      9.030     10.842
REMARK  Name = TS4.pdb
REMARK  2 active torsions:
REMARK  status: ('A' for Active; 'I' for Inactive)
REMARK    1  A    between atoms: C_2  and  C_3
REMARK    2  A    between atoms: C_3  and  C_4
REMARK                            x       y       z     vdW  Elec       q    Type
REMARK                         _______ _______ _______ _____ _____    ______ ____
ROOT
ATOM      1  C   UNL     1     -10.829  11.237  -6.615  0.00  0.00    +0.000 A 
ATOM      2  C   UNL     1     -11.875  12.000  -7.077  0.00  0.00    +0.000 A 
ATOM      3  C   UNL     1     -12.712  12.602  -6.147  0.00  0.00    +0.000 A 
ATOM      4  C   UNL     1     -12.539  12.467  -4.785  0.00  0.00    +0.000 A 
ATOM      5  C   UNL     1     -11.466  11.685  -4.346  0.00  0.00    +0.000 A 
ATOM      6  C   UNL     1     -10.618  11.076  -5.270  0.00  0.00    +0.000 A 
ATOM      7  O   UNL     1      -9.560  10.311  -4.767  0.00  0.00    +0.000 OA
ENDROOT
BRANCH   1   8
ATOM      8  C   UNL     1      -9.935  10.567  -7.578  0.00  0.00    +0.000 C 
BRANCH   8  10
ATOM      9  C   UNL     1     -11.097   8.349  -7.742  0.00  0.00    +0.000 C 
ATOM     10  C   UNL     1     -10.606   9.579  -8.453  0.00  0.00    +0.000 C 
ENDBRANCH   8  10
ENDBRANCH   1   8
TORSDOF 2
ENDMDL
