MODEL 4
REMARK VINA RESULT:      -0.0      5.398      6.776
REMARK  Name = TS4.pdb
REMARK  2 active torsions:
REMARK  status: ('A' for Active; 'I' for Inactive)
REMARK    1  A    between atoms: C_2  and  C_3
REMARK    2  A    between atoms: C_3  and  C_4
REMARK                            x       y       z     vdW  Elec       q    Type
REMARK                         _______ _______ _______ _____ _____    ______ ____
ROOT
ATOM      1  C   UNL     1      -4.414   5.920  -1.261  0.00  0.00    +0.000 A 
ATOM      2  C   UNL     1      -4.024   5.867   0.057  0.00  0.00    +0.000 A 
ATOM      3  C   UNL     1      -2.666   5.800   0.339  0.00  0.00    +0.000 A 
ATOM      4  C   UNL     1      -1.697   5.785  -0.643  0.00  0.00    +0.000 A 
ATOM      5  C   UNL     1      -2.125   5.839  -1.973  0.00  0.00    +0.000 A 
ATOM      6  C   UNL     1      -3.485   5.908  -2.268  0.00  0.00    +0.000 A 
ATOM      7  O   UNL     1      -3.849   5.965  -3.619  0.00  0.00    +0.000 OA
ENDROOT
BRANCH   1   8
ATOM      8  C   UNL     1      -5.850   5.970  -1.593  0.00  0.00    +0.000 C 
BRANCH   8  10
ATOM      9  C   UNL     1      -6.295   3.516  -1.864  0.00  0.00    +0.000 C 
ATOM     10  C   UNL     1      -6.625   4.792  -1.143  0.00  0.00    +0.000 C 
ENDBRANCH   8  10
ENDBRANCH   1   8
TORSDOF 2
ENDMDL
