MODEL 5
REMARK VINA RESULT:      -0.0      5.326      7.144
REMARK  Name = TS4.pdb
REMARK  2 active torsions:
REMARK  status: ('A' for Active; 'I' for Inactive)
REMARK    1  A    between atoms: C_2  and  C_3
REMARK    2  A    between atoms: C_3  and  C_4
REMARK                            x       y       z     vdW  Elec       q    Type
REMARK                         _______ _______ _______ _____ _____    ______ ____
ROOT
ATOM      1  C   UNL     1      -6.892   7.903  -2.433  0.00  0.00    +0.000 A 
ATOM      2  C   UNL     1      -6.254   8.293  -1.279  0.00  0.00    +0.000 A 
ATOM      3  C   UNL     1      -4.947   7.870  -1.073  0.00  0.00    +0.000 A 
ATOM      4  C   UNL     1      -4.266   7.078  -1.975  0.00  0.00    +0.000 A 
ATOM      5  C   UNL     1      -4.942   6.697  -3.138  0.00  0.00    +0.000 A 
ATOM      6  C   UNL     1      -6.253   7.117  -3.356  0.00  0.00    +0.000 A 
ATOM      7  O   UNL     1      -6.872   6.706  -4.543  0.00  0.00    +0.000 OA
ENDROOT
BRANCH   1   8
ATOM      8  C   UNL     1      -8.286   8.318  -2.670  0.00  0.00    +0.000 C 
BRANCH   8  10
ATOM      9  C   UNL     1      -9.477   6.338  -1.689  0.00  0.00    +0.000 C 
ATOM     10  C   UNL     1      -9.253   7.824  -1.663  0.00  0.00    +0.000 C 
ENDBRANCH   8  10
ENDBRANCH   1   8
TORSDOF 2
ENDMDL
