MODEL 6
REMARK VINA RESULT:      -0.0      9.572     10.736
REMARK  Name = TS4.pdb
REMARK  2 active torsions:
REMARK  status: ('A' for Active; 'I' for Inactive)
REMARK    1  A    between atoms: C_2  and  C_3
REMARK    2  A    between atoms: C_3  and  C_4
REMARK                            x       y       z     vdW  Elec       q    Type
REMARK                         _______ _______ _______ _____ _____    ______ ____
ROOT
ATOM      1  C   UNL     1      -3.401   1.996   3.083  0.00  0.00    +0.000 A 
ATOM      2  C   UNL     1      -4.299   1.424   2.213  0.00  0.00    +0.000 A 
ATOM      3  C   UNL     1      -4.051   0.133   1.765  0.00  0.00    +0.000 A 
ATOM      4  C   UNL     1      -2.946  -0.595   2.155  0.00  0.00    +0.000 A 
ATOM      5  C   UNL     1      -2.050   0.014   3.040  0.00  0.00    +0.000 A 
ATOM      6  C   UNL     1      -2.289   1.309   3.497  0.00  0.00    +0.000 A 
ATOM      7  O   UNL     1      -1.358   1.861   4.384  0.00  0.00    +0.000 OA
ENDROOT
BRANCH   1   8
ATOM      8  C   UNL     1      -3.625   3.373   3.559  0.00  0.00    +0.000 C 
BRANCH   8  10
ATOM      9  C   UNL     1      -2.306   4.626   1.832  0.00  0.00    +0.000 C 
ATOM     10  C   UNL     1      -3.636   4.398   2.491  0.00  0.00    +0.000 C 
ENDBRANCH   8  10
ENDBRANCH   1   8
TORSDOF 2
ENDMDL
