MODEL 7
REMARK VINA RESULT:      -0.0      4.190      4.568
REMARK  Name = TS4.pdb
REMARK  2 active torsions:
REMARK  status: ('A' for Active; 'I' for Inactive)
REMARK    1  A    between atoms: C_2  and  C_3
REMARK    2  A    between atoms: C_3  and  C_4
REMARK                            x       y       z     vdW  Elec       q    Type
REMARK                         _______ _______ _______ _____ _____    ______ ____
ROOT
ATOM      1  C   UNL     1      -5.618   7.239  -4.318  0.00  0.00    +0.000 A 
ATOM      2  C   UNL     1      -5.866   7.428  -5.657  0.00  0.00    +0.000 A 
ATOM      3  C   UNL     1      -6.381   6.365  -6.388  0.00  0.00    +0.000 A 
ATOM      4  C   UNL     1      -6.651   5.133  -5.829  0.00  0.00    +0.000 A 
ATOM      5  C   UNL     1      -6.388   4.972  -4.465  0.00  0.00    +0.000 A 
ATOM      6  C   UNL     1      -5.873   6.032  -3.721  0.00  0.00    +0.000 A 
ATOM      7  O   UNL     1      -5.635   5.808  -2.360  0.00  0.00    +0.000 OA
ENDROOT
BRANCH   1   8
ATOM      8  C   UNL     1      -5.052   8.342  -3.520  0.00  0.00    +0.000 C 
BRANCH   8  10
ATOM      9  C   UNL     1      -2.612   7.805  -3.750  0.00  0.00    +0.000 C 
ATOM     10  C   UNL     1      -3.717   8.800  -3.966  0.00  0.00    +0.000 C 
ENDBRANCH   8  10
ENDBRANCH   1   8
TORSDOF 2
ENDMDL
