MODEL 8
REMARK VINA RESULT:      -0.0      7.332      8.416
REMARK  Name = TS4.pdb
REMARK  2 active torsions:
REMARK  status: ('A' for Active; 'I' for Inactive)
REMARK    1  A    between atoms: C_2  and  C_3
REMARK    2  A    between atoms: C_3  and  C_4
REMARK                            x       y       z     vdW  Elec       q    Type
REMARK                         _______ _______ _______ _____ _____    ______ ____
ROOT
ATOM      1  C   UNL     1      -7.424   0.054  -2.473  0.00  0.00    +0.000 A 
ATOM      2  C   UNL     1      -7.865  -1.248  -2.425  0.00  0.00    +0.000 A 
ATOM      3  C   UNL     1      -7.103  -2.225  -3.053  0.00  0.00    +0.000 A 
ATOM      4  C   UNL     1      -5.929  -1.944  -3.720  0.00  0.00    +0.000 A 
ATOM      5  C   UNL     1      -5.507  -0.611  -3.752  0.00  0.00    +0.000 A 
ATOM      6  C   UNL     1      -6.263   0.378  -3.124  0.00  0.00    +0.000 A 
ATOM      7  O   UNL     1      -5.785   1.692  -3.188  0.00  0.00    +0.000 OA
ENDROOT
BRANCH   1   8
ATOM      8  C   UNL     1      -8.222   1.117  -1.834  0.00  0.00    +0.000 C 
BRANCH   8  10
ATOM      9  C   UNL     1      -9.616   1.822  -3.798  0.00  0.00    +0.000 C 
ATOM     10  C   UNL     1      -9.582   1.285  -2.395  0.00  0.00    +0.000 C 
ENDBRANCH   8  10
ENDBRANCH   1   8
TORSDOF 2
ENDMDL
