MODEL 9
REMARK VINA RESULT:      -0.0      4.558      5.457
REMARK  Name = TS4.pdb
REMARK  2 active torsions:
REMARK  status: ('A' for Active; 'I' for Inactive)
REMARK    1  A    between atoms: C_2  and  C_3
REMARK    2  A    between atoms: C_3  and  C_4
REMARK                            x       y       z     vdW  Elec       q    Type
REMARK                         _______ _______ _______ _____ _____    ______ ____
ROOT
ATOM      1  C   UNL     1      -1.224   7.856  -3.512  0.00  0.00    +0.000 A 
ATOM      2  C   UNL     1      -0.050   8.144  -2.857  0.00  0.00    +0.000 A 
ATOM      3  C   UNL     1       0.581   7.123  -2.157  0.00  0.00    +0.000 A 
ATOM      4  C   UNL     1       0.081   5.839  -2.093  0.00  0.00    +0.000 A 
ATOM      5  C   UNL     1      -1.115   5.578  -2.770  0.00  0.00    +0.000 A 
ATOM      6  C   UNL     1      -1.756   6.593  -3.476  0.00  0.00    +0.000 A 
ATOM      7  O   UNL     1      -2.946   6.267  -4.136  0.00  0.00    +0.000 OA
ENDROOT
BRANCH   1   8
ATOM      8  C   UNL     1      -1.928   8.923  -4.245  0.00  0.00    +0.000 C 
BRANCH   8  10
ATOM      9  C   UNL     1      -3.474   9.715  -2.434  0.00  0.00    +0.000 C 
ATOM     10  C   UNL     1      -2.376  10.055  -3.402  0.00  0.00    +0.000 C 
ENDBRANCH   8  10
ENDBRANCH   1   8
TORSDOF 2
ENDMDL
