REMARK  Name = TS4.pdb
REMARK  2 active torsions:
REMARK  status: ('A' for Active; 'I' for Inactive)
REMARK    1  A    between atoms: C_2  and  C_3
REMARK    2  A    between atoms: C_3  and  C_4
REMARK                            x       y       z     vdW  Elec       q    Type
REMARK                         _______ _______ _______ _____ _____    ______ ____
ROOT
ATOM      1  C   UNL     1       0.111  -0.119  -0.604  0.00  0.00    +0.000 A 
ATOM      2  C   UNL     1      -0.534  -1.267  -1.000  0.00  0.00    +0.000 A 
ATOM      3  C   UNL     1      -1.773  -1.553  -0.441  0.00  0.00    +0.000 A 
ATOM      4  C   UNL     1      -2.380  -0.737   0.491  0.00  0.00    +0.000 A 
ATOM      5  C   UNL     1      -1.699   0.423   0.874  0.00  0.00    +0.000 A 
ATOM      6  C   UNL     1      -0.456   0.721   0.319  0.00  0.00    +0.000 A 
ATOM      7  O   UNL     1       0.172   1.899   0.740  0.00  0.00    +0.000 OA
ENDROOT
BRANCH   1   8
ATOM      8  C   UNL     1       1.437   0.201  -1.163  0.00  0.00    +0.000 C 
BRANCH   8  10
ATOM      9  C   UNL     1       2.547   0.562   1.058  0.00  0.00    +0.000 C 
ATOM     10  C   UNL     1       2.574  -0.131  -0.275  0.00  0.00    +0.000 C 
ENDBRANCH   8  10
ENDBRANCH   1   8
TORSDOF 2
